 Title of the simulation: FlatLayers



 **********************************************
 *** Specfem 2-D Mesher - serial version    ***
 **********************************************

 Running Git version of the code corresponding to commit ce71aefda38c1a2057713bd762f9b709445ce7bf
 dating From Date:   Thu Jan 24 15:18:25 2019 -0600

 Reading the parameter file...

 Title of the simulation: FlatLayers


 Receiver lines:
   Nb of line sets =            1

 Materials:
   Nb of solid, fluid or porous materials =            4

 --------
 Material #           1  isotropic
 rho,cp,cs   =    2700.0000000000000        3000.0000000000000        0.0000000000000000     
 Qkappa, Qmu =    9999.0000000000000        9999.0000000000000     
 Material is fluid
 --------
 Material #           2  isotropic
 rho,cp,cs   =    2700.0000000000000        2500.0000000000000        0.0000000000000000     
 Qkappa, Qmu =    9999.0000000000000        9999.0000000000000     
 Material is fluid
 --------
 Material #           3  isotropic
 rho,cp,cs   =    2700.0000000000000        2200.0000000000000        0.0000000000000000     
 Qkappa, Qmu =    9999.0000000000000        9999.0000000000000     
 Material is fluid
 --------
 Material #           4  isotropic
 rho,cp,cs   =    2700.0000000000000        1500.0000000000000        0.0000000000000000     
 Qkappa, Qmu =    9999.0000000000000        9999.0000000000000     
 Material is fluid
 --------

 Mesh from internal meshing:

 Reading interface data from file: ./DATA/interfaces5_2ms.dat                                                                                                                                                                                                                                                                                                                                                                                                                                                                                                      
 Reading            2  points for interface            1
 Reading            2  points for interface            2
 Reading            2  points for interface            3
 Reading            2  points for interface            4
 Reading            2  points for interface            5

 Total number of layers in z direction =            4
 There are            8  spectral elements along Z in layer            1
 There are           10  spectral elements along Z in layer            2
 There are           10  spectral elements along Z in layer            3
 There are           15  spectral elements along Z in layer            4

 Total number of spectral elements along X =          106
 Total number of spectral elements along Z =           43

 Regions:
   Nb of regions in the mesh =            4

 ------
 Region            1
 IX from            1  to          106
 IZ from            1  to            8
 Material #            1  isotropic
 Material is fluid
 vp     =    3000.00000    
 vs     =    0.00000000    
 rho    =    2700.00000    
 Poisson's ratio =   0.500000000    
 QKappa =    9999.00000    
 Qmu    =    9999.00000    
 ------
 Region            2
 IX from            1  to          106
 IZ from            9  to           18
 Material #            2  isotropic
 Material is fluid
 vp     =    2500.00000    
 vs     =    0.00000000    
 rho    =    2700.00000    
 Poisson's ratio =   0.500000000    
 QKappa =    9999.00000    
 Qmu    =    9999.00000    
 ------
 Region            3
 IX from            1  to          106
 IZ from           19  to           28
 Material #            3  isotropic
 Material is fluid
 vp     =    2200.00000    
 vs     =    0.00000000    
 rho    =    2700.00000    
 Poisson's ratio =   0.500000000    
 QKappa =    9999.00000    
 Qmu    =    9999.00000    
 ------
 Region            4
 IX from            1  to          106
 IZ from           29  to           43
 Material #            4  isotropic
 Material is fluid
 vp     =    1500.00000    
 vs     =    0.00000000    
 rho    =    2700.00000    
 Poisson's ratio =   0.500000000    
 QKappa =    9999.00000    
 Qmu    =    9999.00000    
 ------
 Total number of spectral elements         =         4558


 Parameter file successfully read 

 The mesh contains         4558  elements

 Control elements have            9  nodes

 Source           1
   Position xs, zs =    100.00000000000000       -10.000000000000000     

   Source type (1=force, 2=moment tensor, 3=Rayleigh wave, 4=plane incident P, 5=plane incident S):            1
   Force source:
   Angle of the source (deg) =    0.0000000000000000     
   Multiplying factor  =    10000000000.000000     

   Time function type (1=Ricker, 2=First derivative, 3=Gaussian, 4=Dirac, 5=Heaviside, 8=Read from file, 9=burst):           1
   Ricker wavelet (second-derivative):
   Frequency, delay =    5.0000000000000000        0.0000000000000000     

 Reading interface data from file: ./DATA/interfaces5_2ms.dat

 Mesh dimensions: 
   Min and max value of X in the grid =   -300.00000000000000        10300.000000000000     
   Min and max value of Z in the grid =   -3180.0000000000005        0.0000000000000000     

 acoustic_elastic_repartitioning:
 elmnts_l:        18232
 phi_material:            4
 num_material:         4558
 nedges_coupled (acoustic/elastic)     =            0
 nedges_coupled (acoustic/poroelastic) =            0
 nedges_coupled (poroelastic/elastic)  =            0
 Matching each absorbing edge to its element in the absorbing boundary...
 nedge_bound=         192  nb_elmnts_abs=           0

 slice            0  has number of spectral elements =        4558

 Position (x,z) of the source =    100.00000000000000       -10.000000000000000     


 writing the ./DATA/STATIONS file


 There are          399  receivers

 Target positions (x,z) of the          399  receivers

 Receiver            1  =    25.000000000000000       -5.0000000000000000     
 Receiver            2  =    50.000000000000000       -5.0000000000000000     
 Receiver            3  =    75.000000000000000       -5.0000000000000000     
 Receiver            4  =    100.00000000000000       -5.0000000000000000     
 Receiver            5  =    125.00000000000000       -5.0000000000000000     
 Receiver            6  =    150.00000000000000       -5.0000000000000000     
 Receiver            7  =    175.00000000000000       -5.0000000000000000     
 Receiver            8  =    200.00000000000000       -5.0000000000000000     
 Receiver            9  =    225.00000000000000       -5.0000000000000000     
 Receiver           10  =    250.00000000000000       -5.0000000000000000     
 Receiver           11  =    275.00000000000000       -5.0000000000000000     
 Receiver           12  =    300.00000000000000       -5.0000000000000000     
 Receiver           13  =    325.00000000000000       -5.0000000000000000     
 Receiver           14  =    350.00000000000000       -5.0000000000000000     
 Receiver           15  =    375.00000000000000       -5.0000000000000000     
 Receiver           16  =    400.00000000000000       -5.0000000000000000     
 Receiver           17  =    425.00000000000000       -5.0000000000000000     
 Receiver           18  =    450.00000000000000       -5.0000000000000000     
 Receiver           19  =    475.00000000000000       -5.0000000000000000     
 Receiver           20  =    500.00000000000000       -5.0000000000000000     
 Receiver           21  =    525.00000000000000       -5.0000000000000000     
 Receiver           22  =    550.00000000000000       -5.0000000000000000     
 Receiver           23  =    575.00000000000000       -5.0000000000000000     
 Receiver           24  =    600.00000000000000       -5.0000000000000000     
 Receiver           25  =    625.00000000000000       -5.0000000000000000     
 Receiver           26  =    650.00000000000000       -5.0000000000000000     
 Receiver           27  =    675.00000000000000       -5.0000000000000000     
 Receiver           28  =    700.00000000000000       -5.0000000000000000     
 Receiver           29  =    725.00000000000000       -5.0000000000000000     
 Receiver           30  =    750.00000000000000       -5.0000000000000000     
 Receiver           31  =    775.00000000000000       -5.0000000000000000     
 Receiver           32  =    800.00000000000000       -5.0000000000000000     
 Receiver           33  =    825.00000000000000       -5.0000000000000000     
 Receiver           34  =    850.00000000000000       -5.0000000000000000     
 Receiver           35  =    875.00000000000000       -5.0000000000000000     
 Receiver           36  =    900.00000000000000       -5.0000000000000000     
 Receiver           37  =    925.00000000000000       -5.0000000000000000     
 Receiver           38  =    950.00000000000000       -5.0000000000000000     
 Receiver           39  =    975.00000000000000       -5.0000000000000000     
 Receiver           40  =    1000.0000000000000       -5.0000000000000000     
 Receiver           41  =    1025.0000000000000       -5.0000000000000000     
 Receiver           42  =    1050.0000000000000       -5.0000000000000000     
 Receiver           43  =    1075.0000000000000       -5.0000000000000000     
 Receiver           44  =    1100.0000000000000       -5.0000000000000000     
 Receiver           45  =    1125.0000000000000       -5.0000000000000000     
 Receiver           46  =    1150.0000000000000       -5.0000000000000000     
 Receiver           47  =    1175.0000000000000       -5.0000000000000000     
 Receiver           48  =    1200.0000000000000       -5.0000000000000000     
 Receiver           49  =    1225.0000000000000       -5.0000000000000000     
 Receiver           50  =    1250.0000000000000       -5.0000000000000000     
 Receiver           51  =    1275.0000000000000       -5.0000000000000000     
 Receiver           52  =    1300.0000000000000       -5.0000000000000000     
 Receiver           53  =    1325.0000000000000       -5.0000000000000000     
 Receiver           54  =    1350.0000000000000       -5.0000000000000000     
 Receiver           55  =    1375.0000000000000       -5.0000000000000000     
 Receiver           56  =    1400.0000000000000       -5.0000000000000000     
 Receiver           57  =    1425.0000000000000       -5.0000000000000000     
 Receiver           58  =    1450.0000000000000       -5.0000000000000000     
 Receiver           59  =    1475.0000000000000       -5.0000000000000000     
 Receiver           60  =    1500.0000000000000       -5.0000000000000000     
 Receiver           61  =    1525.0000000000000       -5.0000000000000000     
 Receiver           62  =    1550.0000000000000       -5.0000000000000000     
 Receiver           63  =    1575.0000000000000       -5.0000000000000000     
 Receiver           64  =    1600.0000000000000       -5.0000000000000000     
 Receiver           65  =    1625.0000000000000       -5.0000000000000000     
 Receiver           66  =    1650.0000000000000       -5.0000000000000000     
 Receiver           67  =    1675.0000000000000       -5.0000000000000000     
 Receiver           68  =    1700.0000000000000       -5.0000000000000000     
 Receiver           69  =    1725.0000000000000       -5.0000000000000000     
 Receiver           70  =    1750.0000000000000       -5.0000000000000000     
 Receiver           71  =    1775.0000000000000       -5.0000000000000000     
 Receiver           72  =    1800.0000000000000       -5.0000000000000000     
 Receiver           73  =    1825.0000000000000       -5.0000000000000000     
 Receiver           74  =    1850.0000000000000       -5.0000000000000000     
 Receiver           75  =    1875.0000000000000       -5.0000000000000000     
 Receiver           76  =    1900.0000000000000       -5.0000000000000000     
 Receiver           77  =    1925.0000000000000       -5.0000000000000000     
 Receiver           78  =    1950.0000000000000       -5.0000000000000000     
 Receiver           79  =    1975.0000000000000       -5.0000000000000000     
 Receiver           80  =    2000.0000000000000       -5.0000000000000000     
 Receiver           81  =    2025.0000000000000       -5.0000000000000000     
 Receiver           82  =    2050.0000000000000       -5.0000000000000000     
 Receiver           83  =    2075.0000000000000       -5.0000000000000000     
 Receiver           84  =    2100.0000000000000       -5.0000000000000000     
 Receiver           85  =    2125.0000000000000       -5.0000000000000000     
 Receiver           86  =    2150.0000000000000       -5.0000000000000000     
 Receiver           87  =    2175.0000000000000       -5.0000000000000000     
 Receiver           88  =    2200.0000000000000       -5.0000000000000000     
 Receiver           89  =    2225.0000000000000       -5.0000000000000000     
 Receiver           90  =    2250.0000000000000       -5.0000000000000000     
 Receiver           91  =    2275.0000000000000       -5.0000000000000000     
 Receiver           92  =    2300.0000000000000       -5.0000000000000000     
 Receiver           93  =    2325.0000000000000       -5.0000000000000000     
 Receiver           94  =    2350.0000000000000       -5.0000000000000000     
 Receiver           95  =    2375.0000000000000       -5.0000000000000000     
 Receiver           96  =    2400.0000000000000       -5.0000000000000000     
 Receiver           97  =    2425.0000000000000       -5.0000000000000000     
 Receiver           98  =    2450.0000000000000       -5.0000000000000000     
 Receiver           99  =    2475.0000000000000       -5.0000000000000000     
 Receiver          100  =    2500.0000000000000       -5.0000000000000000     
 Receiver          101  =    2525.0000000000000       -5.0000000000000000     
 Receiver          102  =    2550.0000000000000       -5.0000000000000000     
 Receiver          103  =    2575.0000000000000       -5.0000000000000000     
 Receiver          104  =    2600.0000000000000       -5.0000000000000000     
 Receiver          105  =    2625.0000000000000       -5.0000000000000000     
 Receiver          106  =    2650.0000000000000       -5.0000000000000000     
 Receiver          107  =    2675.0000000000000       -5.0000000000000000     
 Receiver          108  =    2700.0000000000000       -5.0000000000000000     
 Receiver          109  =    2725.0000000000000       -5.0000000000000000     
 Receiver          110  =    2750.0000000000000       -5.0000000000000000     
 Receiver          111  =    2775.0000000000000       -5.0000000000000000     
 Receiver          112  =    2800.0000000000000       -5.0000000000000000     
 Receiver          113  =    2825.0000000000000       -5.0000000000000000     
 Receiver          114  =    2850.0000000000000       -5.0000000000000000     
 Receiver          115  =    2875.0000000000000       -5.0000000000000000     
 Receiver          116  =    2900.0000000000000       -5.0000000000000000     
 Receiver          117  =    2925.0000000000000       -5.0000000000000000     
 Receiver          118  =    2950.0000000000000       -5.0000000000000000     
 Receiver          119  =    2975.0000000000000       -5.0000000000000000     
 Receiver          120  =    3000.0000000000000       -5.0000000000000000     
 Receiver          121  =    3025.0000000000000       -5.0000000000000000     
 Receiver          122  =    3050.0000000000000       -5.0000000000000000     
 Receiver          123  =    3075.0000000000000       -5.0000000000000000     
 Receiver          124  =    3100.0000000000000       -5.0000000000000000     
 Receiver          125  =    3125.0000000000000       -5.0000000000000000     
 Receiver          126  =    3150.0000000000000       -5.0000000000000000     
 Receiver          127  =    3175.0000000000000       -5.0000000000000000     
 Receiver          128  =    3200.0000000000000       -5.0000000000000000     
 Receiver          129  =    3225.0000000000000       -5.0000000000000000     
 Receiver          130  =    3250.0000000000000       -5.0000000000000000     
 Receiver          131  =    3275.0000000000000       -5.0000000000000000     
 Receiver          132  =    3300.0000000000000       -5.0000000000000000     
 Receiver          133  =    3325.0000000000000       -5.0000000000000000     
 Receiver          134  =    3350.0000000000000       -5.0000000000000000     
 Receiver          135  =    3375.0000000000000       -5.0000000000000000     
 Receiver          136  =    3400.0000000000000       -5.0000000000000000     
 Receiver          137  =    3425.0000000000000       -5.0000000000000000     
 Receiver          138  =    3450.0000000000000       -5.0000000000000000     
 Receiver          139  =    3475.0000000000000       -5.0000000000000000     
 Receiver          140  =    3500.0000000000000       -5.0000000000000000     
 Receiver          141  =    3525.0000000000000       -5.0000000000000000     
 Receiver          142  =    3550.0000000000000       -5.0000000000000000     
 Receiver          143  =    3575.0000000000000       -5.0000000000000000     
 Receiver          144  =    3600.0000000000000       -5.0000000000000000     
 Receiver          145  =    3625.0000000000000       -5.0000000000000000     
 Receiver          146  =    3650.0000000000000       -5.0000000000000000     
 Receiver          147  =    3675.0000000000000       -5.0000000000000000     
 Receiver          148  =    3700.0000000000000       -5.0000000000000000     
 Receiver          149  =    3725.0000000000000       -5.0000000000000000     
 Receiver          150  =    3750.0000000000000       -5.0000000000000000     
 Receiver          151  =    3775.0000000000000       -5.0000000000000000     
 Receiver          152  =    3800.0000000000000       -5.0000000000000000     
 Receiver          153  =    3825.0000000000000       -5.0000000000000000     
 Receiver          154  =    3850.0000000000000       -5.0000000000000000     
 Receiver          155  =    3875.0000000000000       -5.0000000000000000     
 Receiver          156  =    3900.0000000000000       -5.0000000000000000     
 Receiver          157  =    3925.0000000000000       -5.0000000000000000     
 Receiver          158  =    3950.0000000000000       -5.0000000000000000     
 Receiver          159  =    3975.0000000000000       -5.0000000000000000     
 Receiver          160  =    4000.0000000000000       -5.0000000000000000     
 Receiver          161  =    4025.0000000000000       -5.0000000000000000     
 Receiver          162  =    4050.0000000000000       -5.0000000000000000     
 Receiver          163  =    4075.0000000000000       -5.0000000000000000     
 Receiver          164  =    4100.0000000000000       -5.0000000000000000     
 Receiver          165  =    4125.0000000000000       -5.0000000000000000     
 Receiver          166  =    4150.0000000000000       -5.0000000000000000     
 Receiver          167  =    4175.0000000000000       -5.0000000000000000     
 Receiver          168  =    4200.0000000000000       -5.0000000000000000     
 Receiver          169  =    4225.0000000000000       -5.0000000000000000     
 Receiver          170  =    4250.0000000000000       -5.0000000000000000     
 Receiver          171  =    4275.0000000000000       -5.0000000000000000     
 Receiver          172  =    4300.0000000000000       -5.0000000000000000     
 Receiver          173  =    4325.0000000000000       -5.0000000000000000     
 Receiver          174  =    4350.0000000000000       -5.0000000000000000     
 Receiver          175  =    4375.0000000000000       -5.0000000000000000     
 Receiver          176  =    4400.0000000000000       -5.0000000000000000     
 Receiver          177  =    4425.0000000000000       -5.0000000000000000     
 Receiver          178  =    4450.0000000000000       -5.0000000000000000     
 Receiver          179  =    4475.0000000000000       -5.0000000000000000     
 Receiver          180  =    4500.0000000000000       -5.0000000000000000     
 Receiver          181  =    4525.0000000000000       -5.0000000000000000     
 Receiver          182  =    4550.0000000000000       -5.0000000000000000     
 Receiver          183  =    4575.0000000000000       -5.0000000000000000     
 Receiver          184  =    4600.0000000000000       -5.0000000000000000     
 Receiver          185  =    4625.0000000000000       -5.0000000000000000     
 Receiver          186  =    4650.0000000000000       -5.0000000000000000     
 Receiver          187  =    4675.0000000000000       -5.0000000000000000     
 Receiver          188  =    4700.0000000000000       -5.0000000000000000     
 Receiver          189  =    4725.0000000000000       -5.0000000000000000     
 Receiver          190  =    4750.0000000000000       -5.0000000000000000     
 Receiver          191  =    4775.0000000000000       -5.0000000000000000     
 Receiver          192  =    4800.0000000000000       -5.0000000000000000     
 Receiver          193  =    4825.0000000000000       -5.0000000000000000     
 Receiver          194  =    4850.0000000000000       -5.0000000000000000     
 Receiver          195  =    4875.0000000000000       -5.0000000000000000     
 Receiver          196  =    4900.0000000000000       -5.0000000000000000     
 Receiver          197  =    4925.0000000000000       -5.0000000000000000     
 Receiver          198  =    4950.0000000000000       -5.0000000000000000     
 Receiver          199  =    4975.0000000000000       -5.0000000000000000     
 Receiver          200  =    5000.0000000000000       -5.0000000000000000     
 Receiver          201  =    5025.0000000000000       -5.0000000000000000     
 Receiver          202  =    5050.0000000000000       -5.0000000000000000     
 Receiver          203  =    5075.0000000000000       -5.0000000000000000     
 Receiver          204  =    5100.0000000000000       -5.0000000000000000     
 Receiver          205  =    5125.0000000000000       -5.0000000000000000     
 Receiver          206  =    5150.0000000000000       -5.0000000000000000     
 Receiver          207  =    5175.0000000000000       -5.0000000000000000     
 Receiver          208  =    5200.0000000000000       -5.0000000000000000     
 Receiver          209  =    5225.0000000000000       -5.0000000000000000     
 Receiver          210  =    5250.0000000000000       -5.0000000000000000     
 Receiver          211  =    5275.0000000000000       -5.0000000000000000     
 Receiver          212  =    5300.0000000000000       -5.0000000000000000     
 Receiver          213  =    5325.0000000000000       -5.0000000000000000     
 Receiver          214  =    5350.0000000000000       -5.0000000000000000     
 Receiver          215  =    5375.0000000000000       -5.0000000000000000     
 Receiver          216  =    5400.0000000000000       -5.0000000000000000     
 Receiver          217  =    5425.0000000000000       -5.0000000000000000     
 Receiver          218  =    5450.0000000000000       -5.0000000000000000     
 Receiver          219  =    5475.0000000000000       -5.0000000000000000     
 Receiver          220  =    5500.0000000000000       -5.0000000000000000     
 Receiver          221  =    5525.0000000000000       -5.0000000000000000     
 Receiver          222  =    5550.0000000000000       -5.0000000000000000     
 Receiver          223  =    5575.0000000000000       -5.0000000000000000     
 Receiver          224  =    5600.0000000000000       -5.0000000000000000     
 Receiver          225  =    5625.0000000000000       -5.0000000000000000     
 Receiver          226  =    5650.0000000000000       -5.0000000000000000     
 Receiver          227  =    5675.0000000000000       -5.0000000000000000     
 Receiver          228  =    5700.0000000000000       -5.0000000000000000     
 Receiver          229  =    5725.0000000000000       -5.0000000000000000     
 Receiver          230  =    5750.0000000000000       -5.0000000000000000     
 Receiver          231  =    5775.0000000000000       -5.0000000000000000     
 Receiver          232  =    5800.0000000000000       -5.0000000000000000     
 Receiver          233  =    5825.0000000000000       -5.0000000000000000     
 Receiver          234  =    5850.0000000000000       -5.0000000000000000     
 Receiver          235  =    5875.0000000000000       -5.0000000000000000     
 Receiver          236  =    5900.0000000000000       -5.0000000000000000     
 Receiver          237  =    5925.0000000000000       -5.0000000000000000     
 Receiver          238  =    5950.0000000000000       -5.0000000000000000     
 Receiver          239  =    5975.0000000000000       -5.0000000000000000     
 Receiver          240  =    6000.0000000000000       -5.0000000000000000     
 Receiver          241  =    6025.0000000000000       -5.0000000000000000     
 Receiver          242  =    6050.0000000000000       -5.0000000000000000     
 Receiver          243  =    6075.0000000000000       -5.0000000000000000     
 Receiver          244  =    6100.0000000000000       -5.0000000000000000     
 Receiver          245  =    6125.0000000000000       -5.0000000000000000     
 Receiver          246  =    6150.0000000000000       -5.0000000000000000     
 Receiver          247  =    6175.0000000000000       -5.0000000000000000     
 Receiver          248  =    6200.0000000000000       -5.0000000000000000     
 Receiver          249  =    6225.0000000000000       -5.0000000000000000     
 Receiver          250  =    6250.0000000000000       -5.0000000000000000     
 Receiver          251  =    6275.0000000000000       -5.0000000000000000     
 Receiver          252  =    6300.0000000000000       -5.0000000000000000     
 Receiver          253  =    6325.0000000000000       -5.0000000000000000     
 Receiver          254  =    6350.0000000000000       -5.0000000000000000     
 Receiver          255  =    6375.0000000000000       -5.0000000000000000     
 Receiver          256  =    6400.0000000000000       -5.0000000000000000     
 Receiver          257  =    6425.0000000000000       -5.0000000000000000     
 Receiver          258  =    6450.0000000000000       -5.0000000000000000     
 Receiver          259  =    6475.0000000000000       -5.0000000000000000     
 Receiver          260  =    6500.0000000000000       -5.0000000000000000     
 Receiver          261  =    6525.0000000000000       -5.0000000000000000     
 Receiver          262  =    6550.0000000000000       -5.0000000000000000     
 Receiver          263  =    6575.0000000000000       -5.0000000000000000     
 Receiver          264  =    6600.0000000000000       -5.0000000000000000     
 Receiver          265  =    6625.0000000000000       -5.0000000000000000     
 Receiver          266  =    6650.0000000000000       -5.0000000000000000     
 Receiver          267  =    6675.0000000000000       -5.0000000000000000     
 Receiver          268  =    6700.0000000000000       -5.0000000000000000     
 Receiver          269  =    6725.0000000000000       -5.0000000000000000     
 Receiver          270  =    6750.0000000000000       -5.0000000000000000     
 Receiver          271  =    6775.0000000000000       -5.0000000000000000     
 Receiver          272  =    6800.0000000000000       -5.0000000000000000     
 Receiver          273  =    6825.0000000000000       -5.0000000000000000     
 Receiver          274  =    6850.0000000000000       -5.0000000000000000     
 Receiver          275  =    6875.0000000000000       -5.0000000000000000     
 Receiver          276  =    6900.0000000000000       -5.0000000000000000     
 Receiver          277  =    6925.0000000000000       -5.0000000000000000     
 Receiver          278  =    6950.0000000000000       -5.0000000000000000     
 Receiver          279  =    6975.0000000000000       -5.0000000000000000     
 Receiver          280  =    7000.0000000000000       -5.0000000000000000     
 Receiver          281  =    7025.0000000000000       -5.0000000000000000     
 Receiver          282  =    7050.0000000000000       -5.0000000000000000     
 Receiver          283  =    7075.0000000000000       -5.0000000000000000     
 Receiver          284  =    7100.0000000000000       -5.0000000000000000     
 Receiver          285  =    7125.0000000000000       -5.0000000000000000     
 Receiver          286  =    7150.0000000000000       -5.0000000000000000     
 Receiver          287  =    7175.0000000000000       -5.0000000000000000     
 Receiver          288  =    7200.0000000000000       -5.0000000000000000     
 Receiver          289  =    7225.0000000000000       -5.0000000000000000     
 Receiver          290  =    7250.0000000000000       -5.0000000000000000     
 Receiver          291  =    7275.0000000000000       -5.0000000000000000     
 Receiver          292  =    7300.0000000000000       -5.0000000000000000     
 Receiver          293  =    7325.0000000000000       -5.0000000000000000     
 Receiver          294  =    7350.0000000000000       -5.0000000000000000     
 Receiver          295  =    7375.0000000000000       -5.0000000000000000     
 Receiver          296  =    7400.0000000000000       -5.0000000000000000     
 Receiver          297  =    7425.0000000000000       -5.0000000000000000     
 Receiver          298  =    7450.0000000000000       -5.0000000000000000     
 Receiver          299  =    7475.0000000000000       -5.0000000000000000     
 Receiver          300  =    7500.0000000000000       -5.0000000000000000     
 Receiver          301  =    7525.0000000000000       -5.0000000000000000     
 Receiver          302  =    7550.0000000000000       -5.0000000000000000     
 Receiver          303  =    7575.0000000000000       -5.0000000000000000     
 Receiver          304  =    7600.0000000000000       -5.0000000000000000     
 Receiver          305  =    7625.0000000000000       -5.0000000000000000     
 Receiver          306  =    7650.0000000000000       -5.0000000000000000     
 Receiver          307  =    7675.0000000000000       -5.0000000000000000     
 Receiver          308  =    7700.0000000000000       -5.0000000000000000     
 Receiver          309  =    7725.0000000000000       -5.0000000000000000     
 Receiver          310  =    7750.0000000000000       -5.0000000000000000     
 Receiver          311  =    7775.0000000000000       -5.0000000000000000     
 Receiver          312  =    7800.0000000000000       -5.0000000000000000     
 Receiver          313  =    7825.0000000000000       -5.0000000000000000     
 Receiver          314  =    7850.0000000000000       -5.0000000000000000     
 Receiver          315  =    7875.0000000000000       -5.0000000000000000     
 Receiver          316  =    7900.0000000000000       -5.0000000000000000     
 Receiver          317  =    7925.0000000000000       -5.0000000000000000     
 Receiver          318  =    7950.0000000000000       -5.0000000000000000     
 Receiver          319  =    7975.0000000000000       -5.0000000000000000     
 Receiver          320  =    8000.0000000000000       -5.0000000000000000     
 Receiver          321  =    8025.0000000000000       -5.0000000000000000     
 Receiver          322  =    8050.0000000000000       -5.0000000000000000     
 Receiver          323  =    8075.0000000000000       -5.0000000000000000     
 Receiver          324  =    8100.0000000000000       -5.0000000000000000     
 Receiver          325  =    8125.0000000000000       -5.0000000000000000     
 Receiver          326  =    8150.0000000000000       -5.0000000000000000     
 Receiver          327  =    8175.0000000000000       -5.0000000000000000     
 Receiver          328  =    8200.0000000000000       -5.0000000000000000     
 Receiver          329  =    8225.0000000000000       -5.0000000000000000     
 Receiver          330  =    8250.0000000000000       -5.0000000000000000     
 Receiver          331  =    8275.0000000000000       -5.0000000000000000     
 Receiver          332  =    8300.0000000000000       -5.0000000000000000     
 Receiver          333  =    8325.0000000000000       -5.0000000000000000     
 Receiver          334  =    8350.0000000000000       -5.0000000000000000     
 Receiver          335  =    8375.0000000000000       -5.0000000000000000     
 Receiver          336  =    8400.0000000000000       -5.0000000000000000     
 Receiver          337  =    8425.0000000000000       -5.0000000000000000     
 Receiver          338  =    8450.0000000000000       -5.0000000000000000     
 Receiver          339  =    8475.0000000000000       -5.0000000000000000     
 Receiver          340  =    8500.0000000000000       -5.0000000000000000     
 Receiver          341  =    8525.0000000000000       -5.0000000000000000     
 Receiver          342  =    8550.0000000000000       -5.0000000000000000     
 Receiver          343  =    8575.0000000000000       -5.0000000000000000     
 Receiver          344  =    8600.0000000000000       -5.0000000000000000     
 Receiver          345  =    8625.0000000000000       -5.0000000000000000     
 Receiver          346  =    8650.0000000000000       -5.0000000000000000     
 Receiver          347  =    8675.0000000000000       -5.0000000000000000     
 Receiver          348  =    8700.0000000000000       -5.0000000000000000     
 Receiver          349  =    8725.0000000000000       -5.0000000000000000     
 Receiver          350  =    8750.0000000000000       -5.0000000000000000     
 Receiver          351  =    8775.0000000000000       -5.0000000000000000     
 Receiver          352  =    8800.0000000000000       -5.0000000000000000     
 Receiver          353  =    8825.0000000000000       -5.0000000000000000     
 Receiver          354  =    8850.0000000000000       -5.0000000000000000     
 Receiver          355  =    8875.0000000000000       -5.0000000000000000     
 Receiver          356  =    8900.0000000000000       -5.0000000000000000     
 Receiver          357  =    8925.0000000000000       -5.0000000000000000     
 Receiver          358  =    8950.0000000000000       -5.0000000000000000     
 Receiver          359  =    8975.0000000000000       -5.0000000000000000     
 Receiver          360  =    9000.0000000000000       -5.0000000000000000     
 Receiver          361  =    9025.0000000000000       -5.0000000000000000     
 Receiver          362  =    9050.0000000000000       -5.0000000000000000     
 Receiver          363  =    9075.0000000000000       -5.0000000000000000     
 Receiver          364  =    9100.0000000000000       -5.0000000000000000     
 Receiver          365  =    9125.0000000000000       -5.0000000000000000     
 Receiver          366  =    9150.0000000000000       -5.0000000000000000     
 Receiver          367  =    9175.0000000000000       -5.0000000000000000     
 Receiver          368  =    9200.0000000000000       -5.0000000000000000     
 Receiver          369  =    9225.0000000000000       -5.0000000000000000     
 Receiver          370  =    9250.0000000000000       -5.0000000000000000     
 Receiver          371  =    9275.0000000000000       -5.0000000000000000     
 Receiver          372  =    9300.0000000000000       -5.0000000000000000     
 Receiver          373  =    9325.0000000000000       -5.0000000000000000     
 Receiver          374  =    9350.0000000000000       -5.0000000000000000     
 Receiver          375  =    9375.0000000000000       -5.0000000000000000     
 Receiver          376  =    9400.0000000000000       -5.0000000000000000     
 Receiver          377  =    9425.0000000000000       -5.0000000000000000     
 Receiver          378  =    9450.0000000000000       -5.0000000000000000     
 Receiver          379  =    9475.0000000000000       -5.0000000000000000     
 Receiver          380  =    9500.0000000000000       -5.0000000000000000     
 Receiver          381  =    9525.0000000000000       -5.0000000000000000     
 Receiver          382  =    9550.0000000000000       -5.0000000000000000     
 Receiver          383  =    9575.0000000000000       -5.0000000000000000     
 Receiver          384  =    9600.0000000000000       -5.0000000000000000     
 Receiver          385  =    9625.0000000000000       -5.0000000000000000     
 Receiver          386  =    9650.0000000000000       -5.0000000000000000     
 Receiver          387  =    9675.0000000000000       -5.0000000000000000     
 Receiver          388  =    9700.0000000000000       -5.0000000000000000     
 Receiver          389  =    9725.0000000000000       -5.0000000000000000     
 Receiver          390  =    9750.0000000000000       -5.0000000000000000     
 Receiver          391  =    9775.0000000000000       -5.0000000000000000     
 Receiver          392  =    9800.0000000000000       -5.0000000000000000     
 Receiver          393  =    9825.0000000000000       -5.0000000000000000     
 Receiver          394  =    9850.0000000000000       -5.0000000000000000     
 Receiver          395  =    9875.0000000000000       -5.0000000000000000     
 Receiver          396  =    9900.0000000000000       -5.0000000000000000     
 Receiver          397  =    9925.0000000000000       -5.0000000000000000     
 Receiver          398  =    9950.0000000000000       -5.0000000000000000     
 Receiver          399  =    9975.0000000000000       -5.0000000000000000     

 This will be a serial simulation

 Title of the simulation: FlatLayers



 **********************************************
 **** Specfem 2-D Solver - serial version  ****
 **********************************************

 Running Git version of the code corresponding to commit ce71aefda38c1a2057713bd762f9b709445ce7bf
 dating From Date:   Thu Jan 24 15:18:25 2019 -0600


 NDIM =            2

 NGLLX =            5
 NGLLZ =            5

 using single precision for the calculations

 smallest and largest possible floating-point numbers are:    1.17549435E-38   3.40282347E+38


 -------------------------------------------------------------------------------
 -------------------------------------------------------------------------------
 Program SPECFEM2D: 
 -------------------------------------------------------------------------------
 -------------------------------------------------------------------------------
 FlatLayers
 -------------------------------------------------------------------------------
 -------------------------------------------------------------------------------
 D a t e : 24 - 04 - 2019                                 T i m e  : 13:22:18
 -------------------------------------------------------------------------------
 -------------------------------------------------------------------------------


 C o n t r o l
 =============

     Number of spectral element control nodes. . .(npgeo) =   18531
     Number of space dimensions. . . . . . . . . . (NDIM) =       2


 C o n t r o l
 =============

     Display frequency . . . .(NSTEP_BETWEEN_OUTPUT_INFO) =    200
     Color display . . . . . . . . . . . . . . . (colors) =      1
      == 0     black and white display              
      == 1     color display                        
     Numbered mesh . . . . . . . . . . . . . . .(numbers) =      0
      == 0     do not number the mesh               
      == 1     number the mesh                      


 C o n t r o l
 =============

     Seismograms recording type . . . . . . .(seismotype) =      4
     Angle for first line of receivers. . . . .(anglerec) =   0.00


 C o n t r o l
 =============

     Read external initial field. . . . . .(initialfield) =      F
     Add Bielak conditions (add_Bielak_conditions_bottom) =      F
     Add Bielak conditions .(add_Bielak_conditions_right) =      F
     Add Bielak conditions . .(add_Bielak_conditions_top) =      F
     Add Bielak conditions. .(add_Bielak_conditions_left) =      F
     Attenuation in solid . . .(ATTENUATION_VISCOELASTIC) =      F
     Attenuation in fluid . . (ATTENUATION_VISCOACOUSTIC) =      F
     Save grid in ASCII file or not . (output_grid_ASCII) =      F
     Save a file with total energy or not.(OUTPUT_ENERGY) =      F


 C o n t r o l
 =============

     Vector display type . . . . . . . . .(imagetype_postscript) =      1
     Percentage of cut for vector plots. . . . . . . .(cutsnaps) =   1.00
     Subsampling of velocity model display. (subsamp_postscript) =      1


 I t e r a t i o n s 
 ===================

     Number of time iterations . . . . .(NSTEP) =    3000
     Time step increment. . . . . . . . . .(DT) =   2.000000E-03
     Total simulation duration . . . . . (ttot) =   6.000000E+00

 ***** WARNING *****
 SAVE_FORWARD simulation: uses seismotype =            4
   Note that seismograms usually must be in displacement/potential for (poro)elastic/acoustic domains
   and seismotype should be 1 (elastic/poroelastic adjoint source) or 6 (acoustic adjoint source)
 *******************



     Source Type. . . . . . . . . . . . . . = Collocated Force
     X-position (meters). . . . . . . . . . =    1.0000000000E+02
     Y-position (meters). . . . . . . . . . =   -1.0000000000E+01
     Fundamental frequency (Hz) . . . . . . =    5.0000000000E+00
     Time delay (s) . . . . . . . . . . . . =    0.0000000000E+00
     Multiplying factor . . . . . . . . . . =    1.0000000000E+10
     Angle from vertical direction (deg). . =    0.0000000000E+00

     Onset time. . . . . . =  -0.23999999999999999     
     Fundamental period. . =   0.20000000000000001     
     Fundamental frequency =    5.0000000000000000     
     The onset time is ok

     -- Spectral Elements --


     Number of spectral elements . . . . . . . . (nspec) =     4558
     Number of control nodes per element . . . . . (ngnod) =      9
     Number of points in X-direction . . . . . . . (NGLLX) =      5
     Number of points in Y-direction . . . . . . . (NGLLZ) =      5
     Number of points per element. . . . . . (NGLLX*NGLLZ) =     25
     Number of points for display . . . . . . (pointsdisp) =      6
     Number of element material sets . . . . . . . (numat) =      4
     Number of acoustic forcing elements (nelem_acforcing) =      0
     Number of acoustic free surf (nelem_acoustic_surface) =    106


 M a t e r i a l   s e t s :   2 D  (p o r o) e l a s t i c i t y
 ======================================================

     Number of material sets . . . . . . (numat) =     4


     -------------------------------
     -- Acoustic (fluid) material --
     -------------------------------
     Material set number. . . . . . . . (jmat) =     1
     P-wave velocity. . . . . . . . . . . (cp) = 3.00000000E+03
     Mass density. . . . . . . . . . (density) = 2.70000000E+03
     Bulk modulus Kappa . . . . . . . .(kappa) = 2.43000000E+10
     QKappa_attenuation. . . . . . . .(QKappa) = 9.99900000E+03
     Qmu_attenuation. . . . . . . . . . .(Qmu) = 9.99900000E+03


     -------------------------------
     -- Acoustic (fluid) material --
     -------------------------------
     Material set number. . . . . . . . (jmat) =     2
     P-wave velocity. . . . . . . . . . . (cp) = 2.50000000E+03
     Mass density. . . . . . . . . . (density) = 2.70000000E+03
     Bulk modulus Kappa . . . . . . . .(kappa) = 1.68750000E+10
     QKappa_attenuation. . . . . . . .(QKappa) = 9.99900000E+03
     Qmu_attenuation. . . . . . . . . . .(Qmu) = 9.99900000E+03


     -------------------------------
     -- Acoustic (fluid) material --
     -------------------------------
     Material set number. . . . . . . . (jmat) =     3
     P-wave velocity. . . . . . . . . . . (cp) = 2.20000000E+03
     Mass density. . . . . . . . . . (density) = 2.70000000E+03
     Bulk modulus Kappa . . . . . . . .(kappa) = 1.30680000E+10
     QKappa_attenuation. . . . . . . .(QKappa) = 9.99900000E+03
     Qmu_attenuation. . . . . . . . . . .(Qmu) = 9.99900000E+03


     -------------------------------
     -- Acoustic (fluid) material --
     -------------------------------
     Material set number. . . . . . . . (jmat) =     4
     P-wave velocity. . . . . . . . . . . (cp) = 1.50000000E+03
     Mass density. . . . . . . . . . (density) = 2.70000000E+03
     Bulk modulus Kappa . . . . . . . .(kappa) = 6.07500000E+09
     QKappa_attenuation. . . . . . . .(QKappa) = 9.99900000E+03
     Qmu_attenuation. . . . . . . . . . .(Qmu) = 9.99900000E+03
 Reading          192  absorbing boundary edges

 Absorbing boundaries:
   using PML boundary conditions

 Number of free surface elements:          106

 Setting up mesh

 Generating global mesh numbering (fast version)...


 ... Done generating global mesh numbering.

 Mesh numbering:
   Total number of elements:         4558

   Total number of acoustic elements           =         4558
   Total number of elastic/visco/poro elements =            0

 Exact total number of grid points in the mesh:        73525

 Approximate number of acoustic degrees of freedom in the mesh:        73525
 Approximate number of elastic degrees of freedom in the mesh:            0
   (there are 2 degrees of freedom per point for elastic elements)

 Approximate total number of degrees of freedom in the mesh
 (sum of the two values above):        73525

  (for simplicity viscoelastic or poroelastic elements, if any,
   are counted as elastic in the above three estimates;
   in reality they have more degrees of freedom)

 Mesh dimensions:
   Xmin,Xmax of the whole mesh =   -300.00000000000000        10300.000000000000     
   Zmin,Zmax of the whole mesh =   -3180.0000000000009        0.0000000000000000     

 Domains:
   total number of acoustic elements        =         4558
   total number of elastic elements         =            0
   total number of poroelastic elements     =            0

 Setting up MPI communication arrays

   maximum number of MPI interfaces (for a single slice) =            0

   This is a single process simulation, no need for MPI communication

   number of outer elements  =            0
   number of inner elements  =         4558

   percentage of outer elements    0.00000000     %
   percentage of inner elements    100.000000     %

   number of global nodes in outer elements  =            0
   number of global nodes in inner elements  =        73525

   determining communication phases:
   acoustic domains:
   total number of outer/inner elements =            0        4558
   total percentage of outer elements    0.00000000     %
   total percentage of inner elements    100.000000     %

 All mesh setup done successfully

 sources:

 *******************************
  locating force source
 *******************************


 Force source:
             original x:    100.000000    
             original z:   -10.0000000    
 Closest estimate found:    0.00000000      m away
  in rank            0
  in element         4456
  in acoustic domain
  at xi,gamma coordinates =    1.0000000000000000       0.62499999999999989     


 end of force source detection


 receivers:

 Total number of receivers =          399


 ********************
  locating receivers
 ********************

 reading receiver information from the ./DATA/STATIONS file


 Station #            1     AA      S0001                           
             original x:    25.0000000    
             original z:   -5.00000000    
 Closest estimate found:    8.88178420E-16  m away
  in element         4456
  in rank            0
  at xi,gamma coordinates =  -0.50000000000000000       0.81250000000000000     
 Distance from source:    75.1664810      m


 Station #            2     AA      S0002                           
             original x:    50.0000000    
             original z:   -5.00000000    
 Closest estimate found:    8.88178420E-16  m away
  in element         4456
  in rank            0
  at xi,gamma coordinates =    0.0000000000000000       0.81250000000000000     
 Distance from source:    50.2493782      m


 Station #            3     AA      S0003                           
             original x:    75.0000000    
             original z:   -5.00000000    
 Closest estimate found:    8.88178420E-16  m away
  in element         4456
  in rank            0
  at xi,gamma coordinates =   0.49999999999999983       0.81250000000000000     
 Distance from source:    25.4950981      m


 Station #            4     AA      S0004                           
             original x:    100.000000    
             original z:   -5.00000000    
 Closest estimate found:    8.88178420E-16  m away
  in element         4456
  in rank            0
  at xi,gamma coordinates =    1.0000000000000000       0.81250000000000000     
 Distance from source:    5.00000000      m


 Station #            5     AA      S0005                           
             original x:    125.000000    
             original z:   -5.00000000    
 Closest estimate found:    0.00000000      m away
  in element         4457
  in rank            0
  at xi,gamma coordinates =  -0.50000000000000033       0.81250000000000000     
 Distance from source:    25.4950981      m


 Station #            6     AA      S0006                           
             original x:    150.000000    
             original z:   -5.00000000    
 Closest estimate found:    8.88178420E-16  m away
  in element         4457
  in rank            0
  at xi,gamma coordinates =   -8.9725250115874827E-017  0.81250000000000000     
 Distance from source:    50.2493782      m


 Station #            7     AA      S0007                           
             original x:    175.000000    
             original z:   -5.00000000    
 Closest estimate found:    5.32907052E-15  m away
  in element         4457
  in rank            0
  at xi,gamma coordinates =   0.50000000000000022       0.81249999999999989     
 Distance from source:    75.1664810      m


 Station #            8     AA      S0008                           
             original x:    200.000000    
             original z:   -5.00000000    
 Closest estimate found:    8.88178420E-16  m away
  in element         4457
  in rank            0
  at xi,gamma coordinates =    1.0000000000000000       0.81250000000000000     
 Distance from source:    100.124924      m


 Station #            9     AA      S0009                           
             original x:    225.000000    
             original z:   -5.00000000    
 Closest estimate found:    0.00000000      m away
  in element         4458
  in rank            0
  at xi,gamma coordinates =  -0.50000000000000022       0.81250000000000000     
 Distance from source:    125.099960      m


 Station #           10     AA      S0010                           
             original x:    250.000000    
             original z:   -5.00000000    
 Closest estimate found:    2.84355838E-14  m away
  in element         4458
  in rank            0
  at xi,gamma coordinates =    3.8898368837633078E-016  0.81250000000000000     
 Distance from source:    150.083313      m


 Station #           11     AA      S0011                           
             original x:    275.000000    
             original z:   -5.00000000    
 Closest estimate found:    5.32907052E-15  m away
  in element         4458
  in rank            0
  at xi,gamma coordinates =   0.50000000000000022       0.81249999999999989     
 Distance from source:    175.071411      m


 Station #           12     AA      S0012                           
             original x:    300.000000    
             original z:   -5.00000000    
 Closest estimate found:    0.00000000      m away
  in element         4458
  in rank            0
  at xi,gamma coordinates =    1.0000000000000009       0.81250000000000000     
 Distance from source:    200.062485      m


 Station #           13     AA      S0013                           
             original x:    325.000000    
             original z:   -5.00000000    
 Closest estimate found:    5.70926702E-14  m away
  in element         4459
  in rank            0
  at xi,gamma coordinates =  -0.50000000000000022       0.81249999999999989     
 Distance from source:    225.055542      m


 Station #           14     AA      S0014                           
             original x:    350.000000    
             original z:   -5.00000000    
 Closest estimate found:    8.88178420E-16  m away
  in element         4459
  in rank            0
  at xi,gamma coordinates =   -1.7945050023174968E-016  0.81250000000000000     
 Distance from source:    250.049988      m


 Station #           15     AA      S0015                           
             original x:    375.000000    
             original z:   -5.00000000    
 Closest estimate found:    0.00000000      m away
  in element         4459
  in rank            0
  at xi,gamma coordinates =   0.49999999999999895       0.81250000000000000     
 Distance from source:    275.045441      m


 Station #           16     AA      S0016                           
             original x:    400.000000    
             original z:   -5.00000000    
 Closest estimate found:    8.88178420E-16  m away
  in element         4459
  in rank            0
  at xi,gamma coordinates =    1.0000000000000000       0.81250000000000000     
 Distance from source:    300.041656      m


 Station #           17     AA      S0017                           
             original x:    425.000000    
             original z:   -5.00000000    
 Closest estimate found:    8.88178420E-16  m away
  in element         4460
  in rank            0
  at xi,gamma coordinates =  -0.49999999999999967       0.81250000000000000     
 Distance from source:    325.038452      m


 Station #           18     AA      S0018                           
             original x:    450.000000    
             original z:   -5.00000000    
 Closest estimate found:    8.88178420E-16  m away
  in element         4460
  in rank            0
  at xi,gamma coordinates =    0.0000000000000000       0.81250000000000000     
 Distance from source:    350.035706      m


 Station #           19     AA      S0019                           
             original x:    475.000000    
             original z:   -5.00000000    
 Closest estimate found:    5.69058350E-14  m away
  in element         4460
  in rank            0
  at xi,gamma coordinates =   0.49999999999999900       0.81250000000000000     
 Distance from source:    375.033325      m


 Station #           20     AA      S0020                           
             original x:    500.000000    
             original z:   -5.00000000    
 Closest estimate found:    8.88178420E-16  m away
  in element         4460
  in rank            0
  at xi,gamma coordinates =   0.99999999999999967       0.81250000000000000     
 Distance from source:    400.031250      m


 Station #           21     AA      S0021                           
             original x:    525.000000    
             original z:   -5.00000000    
 Closest estimate found:    0.00000000      m away
  in element         4461
  in rank            0
  at xi,gamma coordinates =  -0.49999999999999939       0.81250000000000000     
 Distance from source:    425.029419      m


 Station #           22     AA      S0022                           
             original x:    550.000000    
             original z:   -5.00000000    
 Closest estimate found:    8.88178420E-16  m away
  in element         4461
  in rank            0
  at xi,gamma coordinates =    0.0000000000000000       0.81250000000000000     
 Distance from source:    450.027771      m


 Station #           23     AA      S0023                           
             original x:    575.000000    
             original z:   -5.00000000    
 Closest estimate found:    0.00000000      m away
  in element         4461
  in rank            0
  at xi,gamma coordinates =   0.50000000000000122       0.81250000000000000     
 Distance from source:    475.026306      m


 Station #           24     AA      S0024                           
             original x:    600.000000    
             original z:   -5.00000000    
 Closest estimate found:    8.88178420E-16  m away
  in element         4461
  in rank            0
  at xi,gamma coordinates =    1.0000000000000020       0.81249999999999989     
 Distance from source:    500.024994      m


 Station #           25     AA      S0025                           
             original x:    625.000000    
             original z:   -5.00000000    
 Closest estimate found:    0.00000000      m away
  in element         4462
  in rank            0
  at xi,gamma coordinates =  -0.49999999999999883       0.81250000000000000     
 Distance from source:    525.023804      m


 Station #           26     AA      S0026                           
             original x:    650.000000    
             original z:   -5.00000000    
 Closest estimate found:    8.88178420E-16  m away
  in element         4462
  in rank            0
  at xi,gamma coordinates =    0.0000000000000000       0.81250000000000000     
 Distance from source:    550.022705      m


 Station #           27     AA      S0027                           
             original x:    675.000000    
             original z:   -5.00000000    
 Closest estimate found:    0.00000000      m away
  in element         4462
  in rank            0
  at xi,gamma coordinates =   0.50000000000000089       0.81250000000000000     
 Distance from source:    575.021729      m


 Station #           28     AA      S0028                           
             original x:    700.000000    
             original z:   -5.00000000    
 Closest estimate found:    8.88178420E-16  m away
  in element         4462
  in rank            0
  at xi,gamma coordinates =   0.99999999999999967       0.81250000000000000     
 Distance from source:    600.020813      m


 Station #           29     AA      S0029                           
             original x:    725.000000    
             original z:   -5.00000000    
 Closest estimate found:    8.88178420E-16  m away
  in element         4463
  in rank            0
  at xi,gamma coordinates =  -0.49999999999999950       0.81250000000000000     
 Distance from source:    625.020020      m


 Station #           30     AA      S0030                           
             original x:    750.000000    
             original z:   -5.00000000    
 Closest estimate found:    8.88178420E-16  m away
  in element         4463
  in rank            0
  at xi,gamma coordinates =    3.5890100046349921E-016  0.81250000000000000     
 Distance from source:    650.019226      m


 Station #           31     AA      S0031                           
             original x:    775.000000    
             original z:   -5.00000000    
 Closest estimate found:    0.00000000      m away
  in element         4463
  in rank            0
  at xi,gamma coordinates =   0.49999999999999933       0.81250000000000000     
 Distance from source:    675.018494      m


 Station #           32     AA      S0032                           
             original x:    800.000000    
             original z:   -5.00000000    
 Closest estimate found:    8.88178420E-16  m away
  in element         4463
  in rank            0
  at xi,gamma coordinates =    1.0000000000000000       0.81250000000000000     
 Distance from source:    700.017883      m


 Station #           33     AA      S0033                           
             original x:    825.000000    
             original z:   -5.00000000    
 Closest estimate found:    1.13700716E-13  m away
  in element         4464
  in rank            0
  at xi,gamma coordinates =  -0.50000000000000322       0.81250000000000000     
 Distance from source:    725.017212      m


 Station #           34     AA      S0034                           
             original x:    850.000000    
             original z:   -5.00000000    
 Closest estimate found:    8.88178420E-16  m away
  in element         4464
  in rank            0
  at xi,gamma coordinates =    0.0000000000000000       0.81250000000000000     
 Distance from source:    750.016663      m


 Station #           35     AA      S0035                           
             original x:    875.000000    
             original z:   -5.00000000    
 Closest estimate found:    1.13690307E-13  m away
  in element         4464
  in rank            0
  at xi,gamma coordinates =   0.49999999999999928       0.81250000000000000     
 Distance from source:    775.016113      m


 Station #           36     AA      S0036                           
             original x:    900.000000    
             original z:   -5.00000000    
 Closest estimate found:    8.88178420E-16  m away
  in element         4464
  in rank            0
  at xi,gamma coordinates =    1.0000000000000000       0.81250000000000000     
 Distance from source:    800.015625      m


 Station #           37     AA      S0037                           
             original x:    925.000000    
             original z:   -5.00000000    
 Closest estimate found:    5.32907052E-15  m away
  in element         4465
  in rank            0
  at xi,gamma coordinates =  -0.50000000000000133       0.81250000000000011     
 Distance from source:    825.015137      m


 Station #           38     AA      S0038                           
             original x:    950.000000    
             original z:   -5.00000000    
 Closest estimate found:    8.88178420E-16  m away
  in element         4465
  in rank            0
  at xi,gamma coordinates =    0.0000000000000000       0.81250000000000000     
 Distance from source:    850.014709      m


 Station #           39     AA      S0039                           
             original x:    975.000000    
             original z:   -5.00000000    
 Closest estimate found:    1.13686838E-13  m away
  in element         4465
  in rank            0
  at xi,gamma coordinates =   0.50000000000000122       0.81250000000000000     
 Distance from source:    875.014282      m


 Station #           40     AA      S0040                           
             original x:    1000.00000    
             original z:   -5.00000000    
 Closest estimate found:    1.13690307E-13  m away
  in element         4466
  in rank            0
  at xi,gamma coordinates =   -1.0000000000000002       0.81249999999999989     
 Distance from source:    900.013916      m


 Station #           41     AA      S0041                           
             original x:    1025.00000    
             original z:   -5.00000000    
 Closest estimate found:    4.54778576E-13  m away
  in element         4466
  in rank            0
  at xi,gamma coordinates =  -0.50000000000000433       0.81250000000000011     
 Distance from source:    925.013489      m


 Station #           42     AA      S0042                           
             original x:    1050.00000    
             original z:   -5.00000000    
 Closest estimate found:    8.88178420E-16  m away
  in element         4466
  in rank            0
  at xi,gamma coordinates =    0.0000000000000000       0.81250000000000000     
 Distance from source:    950.013184      m


 Station #           43     AA      S0043                           
             original x:    1075.00000    
             original z:   -5.00000000    
 Closest estimate found:    1.77635684E-15  m away
  in element         4466
  in rank            0
  at xi,gamma coordinates =   0.49999999999999700       0.81250000000000000     
 Distance from source:    975.012817      m


 Station #           44     AA      S0044                           
             original x:    1100.00000    
             original z:   -5.00000000    
 Closest estimate found:    8.88178420E-16  m away
  in element         4466
  in rank            0
  at xi,gamma coordinates =    1.0000000000000000       0.81250000000000000     
 Distance from source:    1000.01251      m


 Station #           45     AA      S0045                           
             original x:    1125.00000    
             original z:   -5.00000000    
 Closest estimate found:    5.32907052E-15  m away
  in element         4467
  in rank            0
  at xi,gamma coordinates =  -0.50000000000000133       0.81250000000000011     
 Distance from source:    1025.01221      m


 Station #           46     AA      S0046                           
             original x:    1150.00000    
             original z:   -5.00000000    
 Closest estimate found:    8.88178420E-16  m away
  in element         4467
  in rank            0
  at xi,gamma coordinates =    7.1780200092699970E-016  0.81250000000000000     
 Distance from source:    1050.01196      m


 Station #           47     AA      S0047                           
             original x:    1175.00000    
             original z:   -5.00000000    
 Closest estimate found:    0.00000000      m away
  in element         4467
  in rank            0
  at xi,gamma coordinates =   0.50000000000000089       0.81250000000000000     
 Distance from source:    1075.01160      m


 Station #           48     AA      S0048                           
             original x:    1200.00000    
             original z:   -5.00000000    
 Closest estimate found:    0.00000000      m away
  in element         4467
  in rank            0
  at xi,gamma coordinates =   0.99999999999999933       0.81250000000000000     
 Distance from source:    1100.01135      m


 Station #           49     AA      S0049                           
             original x:    1225.00000    
             original z:   -5.00000000    
 Closest estimate found:    5.32907052E-15  m away
  in element         4468
  in rank            0
  at xi,gamma coordinates =  -0.50000000000000133       0.81250000000000011     
 Distance from source:    1125.01111      m


 Station #           50     AA      S0050                           
             original x:    1250.00000    
             original z:   -5.00000000    
 Closest estimate found:    8.88178420E-16  m away
  in element         4468
  in rank            0
  at xi,gamma coordinates =    0.0000000000000000       0.81250000000000000     
 Distance from source:    1150.01086      m


 Station #           51     AA      S0051                           
             original x:    1275.00000    
             original z:   -5.00000000    
 Closest estimate found:    0.00000000      m away
  in element         4468
  in rank            0
  at xi,gamma coordinates =   0.50000000000000056       0.81250000000000000     
 Distance from source:    1175.01062      m


 Station #           52     AA      S0052                           
             original x:    1300.00000    
             original z:   -5.00000000    
 Closest estimate found:    8.88178420E-16  m away
  in element         4468
  in rank            0
  at xi,gamma coordinates =    1.0000000000000000       0.81250000000000000     
 Distance from source:    1200.01038      m


 Station #           53     AA      S0053                           
             original x:    1325.00000    
             original z:   -5.00000000    
 Closest estimate found:    4.54778576E-13  m away
  in element         4469
  in rank            0
  at xi,gamma coordinates =  -0.50000000000000588       0.81250000000000011     
 Distance from source:    1225.01025      m


 Station #           54     AA      S0054                           
             original x:    1350.00000    
             original z:   -5.00000000    
 Closest estimate found:    8.88178420E-16  m away
  in element         4469
  in rank            0
  at xi,gamma coordinates =    7.1780200092699872E-016  0.81250000000000000     
 Distance from source:    1250.01001      m


 Station #           55     AA      S0055                           
             original x:    1375.00000    
             original z:   -5.00000000    
 Closest estimate found:    0.00000000      m away
  in element         4469
  in rank            0
  at xi,gamma coordinates =   0.50000000000000089       0.81250000000000000     
 Distance from source:    1275.00977      m


 Station #           56     AA      S0056                           
             original x:    1400.00000    
             original z:   -5.00000000    
 Closest estimate found:    0.00000000      m away
  in element         4469
  in rank            0
  at xi,gamma coordinates =   0.99999999999999933       0.81250000000000000     
 Distance from source:    1300.00964      m


 Station #           57     AA      S0057                           
             original x:    1425.00000    
             original z:   -5.00000000    
 Closest estimate found:    0.00000000      m away
  in element         4470
  in rank            0
  at xi,gamma coordinates =  -0.50000000000000211       0.81250000000000000     
 Distance from source:    1325.00940      m


 Station #           58     AA      S0058                           
             original x:    1450.00000    
             original z:   -5.00000000    
 Closest estimate found:    8.88178420E-16  m away
  in element         4470
  in rank            0
  at xi,gamma coordinates =    0.0000000000000000       0.81250000000000000     
 Distance from source:    1350.00928      m


 Station #           59     AA      S0059                           
             original x:    1475.00000    
             original z:   -5.00000000    
 Closest estimate found:    0.00000000      m away
  in element         4470
  in rank            0
  at xi,gamma coordinates =   0.50000000000000122       0.81250000000000000     
 Distance from source:    1375.00903      m


 Station #           60     AA      S0060                           
             original x:    1500.00000    
             original z:   -5.00000000    
 Closest estimate found:    0.00000000      m away
  in element         4471
  in rank            0
  at xi,gamma coordinates =   -1.0000000000000009       0.81250000000000000     
 Distance from source:    1400.00891      m


 Station #           61     AA      S0061                           
             original x:    1525.00000    
             original z:   -5.00000000    
 Closest estimate found:    5.32907052E-15  m away
  in element         4471
  in rank            0
  at xi,gamma coordinates =  -0.50000000000000067       0.81249999999999989     
 Distance from source:    1425.00879      m


 Station #           62     AA      S0062                           
             original x:    1550.00000    
             original z:   -5.00000000    
 Closest estimate found:    8.88178420E-16  m away
  in element         4471
  in rank            0
  at xi,gamma coordinates =   -7.1780200092699793E-016  0.81250000000000000     
 Distance from source:    1450.00867      m


 Station #           63     AA      S0063                           
             original x:    1575.00000    
             original z:   -5.00000000    
 Closest estimate found:    8.88178420E-16  m away
  in element         4471
  in rank            0
  at xi,gamma coordinates =   0.49999999999999983       0.81250000000000000     
 Distance from source:    1475.00842      m


 Station #           64     AA      S0064                           
             original x:    1600.00000    
             original z:   -5.00000000    
 Closest estimate found:    8.88178420E-16  m away
  in element         4471
  in rank            0
  at xi,gamma coordinates =    1.0000000000000000       0.81250000000000000     
 Distance from source:    1500.00830      m


 Station #           65     AA      S0065                           
             original x:    1625.00000    
             original z:   -5.00000000    
 Closest estimate found:    5.32907052E-15  m away
  in element         4472
  in rank            0
  at xi,gamma coordinates =  -0.50000000000000133       0.81250000000000011     
 Distance from source:    1525.00818      m


 Station #           66     AA      S0066                           
             original x:    1650.00000    
             original z:   -5.00000000    
 Closest estimate found:    8.88178420E-16  m away
  in element         4472
  in rank            0
  at xi,gamma coordinates =    0.0000000000000000       0.81250000000000000     
 Distance from source:    1550.00806      m


 Station #           67     AA      S0067                           
             original x:    1675.00000    
             original z:   -5.00000000    
 Closest estimate found:    1.77635684E-15  m away
  in element         4472
  in rank            0
  at xi,gamma coordinates =   0.49999999999999600       0.81250000000000000     
 Distance from source:    1575.00793      m


 Station #           68     AA      S0068                           
             original x:    1700.00000    
             original z:   -5.00000000    
 Closest estimate found:    8.88178420E-16  m away
  in element         4472
  in rank            0
  at xi,gamma coordinates =    1.0000000000000000       0.81250000000000000     
 Distance from source:    1600.00781      m


 Station #           69     AA      S0069                           
             original x:    1725.00000    
             original z:   -5.00000000    
 Closest estimate found:    4.54750820E-13  m away
  in element         4473
  in rank            0
  at xi,gamma coordinates =  -0.49999999999999611       0.81249999999999989     
 Distance from source:    1625.00769      m


 Station #           70     AA      S0070                           
             original x:    1750.00000    
             original z:   -5.00000000    
 Closest estimate found:    8.88178420E-16  m away
  in element         4473
  in rank            0
  at xi,gamma coordinates =    0.0000000000000000       0.81250000000000000     
 Distance from source:    1650.00757      m


 Station #           71     AA      S0071                           
             original x:    1775.00000    
             original z:   -5.00000000    
 Closest estimate found:    2.27375410E-13  m away
  in element         4473
  in rank            0
  at xi,gamma coordinates =   0.49999999999999289       0.81250000000000000     
 Distance from source:    1675.00745      m


 Station #           72     AA      S0072                           
             original x:    1800.00000    
             original z:   -5.00000000    
 Closest estimate found:    8.88178420E-16  m away
  in element         4473
  in rank            0
  at xi,gamma coordinates =    1.0000000000000000       0.81250000000000000     
 Distance from source:    1700.00732      m


 Station #           73     AA      S0073                           
             original x:    1825.00000    
             original z:   -5.00000000    
 Closest estimate found:    5.32907052E-15  m away
  in element         4474
  in rank            0
  at xi,gamma coordinates =  -0.50000000000000133       0.81250000000000011     
 Distance from source:    1725.00720      m


 Station #           74     AA      S0074                           
             original x:    1850.00000    
             original z:   -5.00000000    
 Closest estimate found:    8.88178420E-16  m away
  in element         4474
  in rank            0
  at xi,gamma coordinates =    0.0000000000000000       0.81250000000000000     
 Distance from source:    1750.00720      m


 Station #           75     AA      S0075                           
             original x:    1875.00000    
             original z:   -5.00000000    
 Closest estimate found:    0.00000000      m away
  in element         4474
  in rank            0
  at xi,gamma coordinates =   0.50000000000000056       0.81250000000000000     
 Distance from source:    1775.00708      m


 Station #           76     AA      S0076                           
             original x:    1900.00000    
             original z:   -5.00000000    
 Closest estimate found:    8.88178420E-16  m away
  in element         4474
  in rank            0
  at xi,gamma coordinates =    1.0000000000000000       0.81250000000000000     
 Distance from source:    1800.00696      m


 Station #           77     AA      S0077                           
             original x:    1925.00000    
             original z:   -5.00000000    
 Closest estimate found:    2.27380614E-13  m away
  in element         4475
  in rank            0
  at xi,gamma coordinates =  -0.49999999999999445       0.81250000000000000     
 Distance from source:    1825.00684      m


 Station #           78     AA      S0078                           
             original x:    1950.00000    
             original z:   -5.00000000    
 Closest estimate found:    8.88178420E-16  m away
  in element         4475
  in rank            0
  at xi,gamma coordinates =    1.4356040018539974E-015  0.81250000000000000     
 Distance from source:    1850.00671      m


 Station #           79     AA      S0079                           
             original x:    1975.00000    
             original z:   -5.00000000    
 Closest estimate found:    0.00000000      m away
  in element         4475
  in rank            0
  at xi,gamma coordinates =   0.50000000000000056       0.81250000000000000     
 Distance from source:    1875.00671      m


 Station #           80     AA      S0080                           
             original x:    2000.00000    
             original z:   -5.00000000    
 Closest estimate found:    8.88178420E-16  m away
  in element         4475
  in rank            0
  at xi,gamma coordinates =   0.99999999999999856       0.81250000000000000     
 Distance from source:    1900.00659      m


 Station #           81     AA      S0081                           
             original x:    2025.00000    
             original z:   -5.00000000    
 Closest estimate found:    1.77635684E-15  m away
  in element         4476
  in rank            0
  at xi,gamma coordinates =  -0.50000000000000278       0.81250000000000000     
 Distance from source:    1925.00647      m


 Station #           82     AA      S0082                           
             original x:    2050.00000    
             original z:   -5.00000000    
 Closest estimate found:    8.88178420E-16  m away
  in element         4476
  in rank            0
  at xi,gamma coordinates =   -1.4356040018539974E-015  0.81250000000000000     
 Distance from source:    1950.00647      m


 Station #           83     AA      S0083                           
             original x:    2075.00000    
             original z:   -5.00000000    
 Closest estimate found:    0.00000000      m away
  in element         4476
  in rank            0
  at xi,gamma coordinates =   0.50000000000000056       0.81250000000000000     
 Distance from source:    1975.00635      m


 Station #           84     AA      S0084                           
             original x:    2100.00000    
             original z:   -5.00000000    
 Closest estimate found:    8.88178420E-16  m away
  in element         4476
  in rank            0
  at xi,gamma coordinates =    1.0000000000000000       0.81250000000000000     
 Distance from source:    2000.00623      m


 Station #           85     AA      S0085                           
             original x:    2125.00000    
             original z:   -5.00000000    
 Closest estimate found:    5.32907052E-15  m away
  in element         4477
  in rank            0
  at xi,gamma coordinates =  -0.50000000000000133       0.81250000000000011     
 Distance from source:    2025.00623      m


 Station #           86     AA      S0086                           
             original x:    2150.00000    
             original z:   -5.00000000    
 Closest estimate found:    8.88178420E-16  m away
  in element         4477
  in rank            0
[...]
 *********************************************

 *** Max grid size =    100.00000000000000     
 *** Min grid size =    53.333333333333258     
 *** Max/min ratio =    1.8750000000000027     

 *** Minimum GLL point distance  =    9.2092354477872611     
 *** Average GLL point distance  =    13.333333333333314     

 *** Minimum period resolved     =    8.3333333333333329E-002
 *** Maximum frequency resolved  =    12.000000000000000      Hz

 *** Maximum suggested time step                 =    2.7627706343361824E-003
 *** Maximum suggested (Ricker) source frequency =    4.8000000000000007     

 *** for DT :    2.0000000000000000E-003
 *** Max CFL stability condition of the time scheme based on P wave velocity (must be below about 0.50 or so) =   0.36195549046737008     

 ----
 Number of points per wavelength:
 ----
   Source            1
   maximum dominant source frequency =    12.500000000000000      Hz

   Nb pts / lambdaP_fmax min =    4.80000019    
   Nb pts / lambdaP_fmax max =    9.60000038    

   purely fluid regions

 -----------------------------------------

 histogram of min number of points per P wavelength in fluid regions:

 there are         4558  elements out of         4558  in fluid regions
   (i.e.,    100.000000     % of the total)

 (too small = poor resolution of calculations -
  too big = wasting memory and CPU time)
 (threshold value is around 4.5 points per S wavelength
  in elastic regions and 5.5 per P wavelength in fluid regions):

   4.80000019      -    5.03999996            1590     34.8837204      %
   5.03999996      -    5.28000021               0     0.00000000      %
   5.28000021      -    5.51999998               0     0.00000000      %
   5.51999998      -    5.76000023               0     0.00000000      %
   5.76000023      -    6.00000000               0     0.00000000      %
   6.00000000      -    6.23999977               0     0.00000000      %
   6.23999977      -    6.48000002               0     0.00000000      %
   6.48000002      -    6.71999979               0     0.00000000      %
   6.71999979      -    6.96000004               0     0.00000000      %
   6.96000004      -    7.19999981            1060     23.2558136      %
   7.19999981      -    7.44000006               0     0.00000000      %
   7.44000006      -    7.67999983               0     0.00000000      %
   7.67999983      -    7.92000008               0     0.00000000      %
   7.92000008      -    8.15999985            1060     23.2558136      %
   8.15999985      -    8.39999962               0     0.00000000      %
   8.39999962      -    8.64000034               0     0.00000000      %
   8.64000034      -    8.88000011               0     0.00000000      %
   8.88000011      -    9.11999989               0     0.00000000      %
   9.11999989      -    9.35999966               0     0.00000000      %
   9.35999966      -    9.60000038             848     18.6046505      %

 total percentage =    100.00000000000000       %


 total number of elements in fluid and solid regions =         4558


 Preparing source time function
   saving the source time function in a text file...

 Preparing material arrays

 Preparing image coloring
   allocating color image arrays
   locating all the pixels of color images
   total number of image pixels =        89544
   done locating all the pixels of color images
   coloring image background based on vp

 done, preparation successful


 =========================================
 =  T i m e  e v o l u t i o n  l o o p  =
 =========================================


 Starting time iteration loop ...


 ******************************************************************
Time step number       5   t =    0.0080 s out of    3000
 ******************************************************************
 We have done   0.133377790     % of the total
 Max absolute value of scalar field in fluid (acoustic) =    2.87986137E-02
 Elapsed time in seconds =    2.9999971389770508E-002
 Elapsed time in hh:mm:ss =      0 h 00 m 00 s
 Mean elapsed time per time step in seconds =    5.9999942779541014E-003
 Time steps remaining =         2995
 Estimated remaining time in seconds =    17.969982862472534     
 Estimated remaining time in hh:mm:ss =      0 h 00 m 17 s
 Estimated total run time in seconds =    17.999982833862305     
 Estimated total run time in hh:mm:ss =      0 h 00 m 17 s
 The run will finish approximately on: Wed Apr 24, 2019 13:23


 Creating color image of size          546  x          174  for time step            5
 drawing scalar image of the forward wavefield pressure...
 Color image maximum amplitude =    402.72769165039062     
 Color image created

 ******************************************************************
Time step number     200   t =    0.3980 s out of    3000
 ******************************************************************
 We have done    6.63554525     % of the total
 Max absolute value of scalar field in fluid (acoustic) =    160.459946    
 Elapsed time in seconds =    1.9409999847412109     
 Elapsed time in hh:mm:ss =      0 h 00 m 01 s
 Mean elapsed time per time step in seconds =    9.7049999237060550E-003
 Time steps remaining =         2800
 Estimated remaining time in seconds =    27.173999786376953     
 Estimated remaining time in hh:mm:ss =      0 h 00 m 27 s
 Estimated total run time in seconds =    29.114999771118164     
 Estimated total run time in hh:mm:ss =      0 h 00 m 29 s
 The run will finish approximately on: Wed Apr 24, 2019 13:23


 ******************************************************************
Time step number     400   t =    0.7980 s out of    3000
 ******************************************************************
 We have done    13.3044348     % of the total
 Max absolute value of scalar field in fluid (acoustic) =    98.6272583    
 Elapsed time in seconds =    4.8910000324249268     
 Elapsed time in hh:mm:ss =      0 h 00 m 04 s
 Mean elapsed time per time step in seconds =    1.2227500081062317E-002
 Time steps remaining =         2600
 Estimated remaining time in seconds =    31.791500210762024     
 Estimated remaining time in hh:mm:ss =      0 h 00 m 31 s
 Estimated total run time in seconds =    36.682500243186951     
 Estimated total run time in hh:mm:ss =      0 h 00 m 36 s
 The run will finish approximately on: Wed Apr 24, 2019 13:23


 Creating color image of size          546  x          174  for time step          500
 drawing scalar image of the forward wavefield pressure...
 Color image maximum amplitude =    140396.06250000000     
 Color image created

 ******************************************************************
Time step number     600   t =    1.1980 s out of    3000
 ******************************************************************
 We have done    19.9733238     % of the total
 Max absolute value of scalar field in fluid (acoustic) =    68.5555649    
 Elapsed time in seconds =    8.3599998950958252     
 Elapsed time in hh:mm:ss =      0 h 00 m 08 s
 Mean elapsed time per time step in seconds =    1.3933333158493042E-002
 Time steps remaining =         2400
 Estimated remaining time in seconds =    33.439999580383301     
 Estimated remaining time in hh:mm:ss =      0 h 00 m 33 s
 Estimated total run time in seconds =    41.799999475479126     
 Estimated total run time in hh:mm:ss =      0 h 00 m 41 s
 The run will finish approximately on: Wed Apr 24, 2019 13:23


 ******************************************************************
Time step number     800   t =    1.5980 s out of    3000
 ******************************************************************
 We have done    26.6422138     % of the total
 Max absolute value of scalar field in fluid (acoustic) =    53.9093437    
 Elapsed time in seconds =    12.569000005722046     
 Elapsed time in hh:mm:ss =      0 h 00 m 12 s
 Mean elapsed time per time step in seconds =    1.5711250007152556E-002
 Time steps remaining =         2200
 Estimated remaining time in seconds =    34.564750015735626     
 Estimated remaining time in hh:mm:ss =      0 h 00 m 34 s
 Estimated total run time in seconds =    47.133750021457672     
 Estimated total run time in hh:mm:ss =      0 h 00 m 47 s
 The run will finish approximately on: Wed Apr 24, 2019 13:23


 ******************************************************************
Time step number    1000   t =    1.9980 s out of    3000
 ******************************************************************
 We have done    33.3111038     % of the total
 Max absolute value of scalar field in fluid (acoustic) =    53.6862907    
 Elapsed time in seconds =    17.931999921798706     
 Elapsed time in hh:mm:ss =      0 h 00 m 17 s
 Mean elapsed time per time step in seconds =    1.7931999921798707E-002
 Time steps remaining =         2000
 Estimated remaining time in seconds =    35.863999843597412     
 Estimated remaining time in hh:mm:ss =      0 h 00 m 35 s
 Estimated total run time in seconds =    53.795999765396118     
 Estimated total run time in hh:mm:ss =      0 h 00 m 53 s
 The run will finish approximately on: Wed Apr 24, 2019 13:23


 Creating color image of size          546  x          174  for time step         1000
 drawing scalar image of the forward wavefield pressure...
 Color image maximum amplitude =    90803.250000000000     
 Color image created

 ******************************************************************
Time step number    1200   t =    2.3980 s out of    3000
 ******************************************************************
 We have done    39.9799919     % of the total
 Max absolute value of scalar field in fluid (acoustic) =    47.5072823    
 Elapsed time in seconds =    25.793999910354614     
 Elapsed time in hh:mm:ss =      0 h 00 m 25 s
 Mean elapsed time per time step in seconds =    2.1494999925295511E-002
 Time steps remaining =         1800
 Estimated remaining time in seconds =    38.690999865531921     
 Estimated remaining time in hh:mm:ss =      0 h 00 m 38 s
 Estimated total run time in seconds =    64.484999775886536     
 Estimated total run time in hh:mm:ss =      0 h 01 m 04 s
 The run will finish approximately on: Wed Apr 24, 2019 13:23


 ******************************************************************
Time step number    1400   t =    2.7980 s out of    3000
 ******************************************************************
 We have done    46.6488838     % of the total
 Max absolute value of scalar field in fluid (acoustic) =    42.6633072    
 Elapsed time in seconds =    33.629999876022339     
 Elapsed time in hh:mm:ss =      0 h 00 m 33 s
 Mean elapsed time per time step in seconds =    2.4021428482873100E-002
 Time steps remaining =         1600
 Estimated remaining time in seconds =    38.434285572596963     
 Estimated remaining time in hh:mm:ss =      0 h 00 m 38 s
 Estimated total run time in seconds =    72.064285448619302     
 Estimated total run time in hh:mm:ss =      0 h 01 m 12 s
 The run will finish approximately on: Wed Apr 24, 2019 13:24


 Creating color image of size          546  x          174  for time step         1500
 drawing scalar image of the forward wavefield pressure...
 Color image maximum amplitude =    92395.921875000000     
 Color image created

 ******************************************************************
Time step number    1600   t =    3.1980 s out of    3000
 ******************************************************************
 We have done    53.3177719     % of the total
 Max absolute value of scalar field in fluid (acoustic) =    48.9169464    
 Elapsed time in seconds =    40.080999851226807     
 Elapsed time in hh:mm:ss =      0 h 00 m 40 s
 Mean elapsed time per time step in seconds =    2.5050624907016754E-002
 Time steps remaining =         1400
 Estimated remaining time in seconds =    35.070874869823456     
 Estimated remaining time in hh:mm:ss =      0 h 00 m 35 s
 Estimated total run time in seconds =    75.151874721050262     
 Estimated total run time in hh:mm:ss =      0 h 01 m 15 s
 The run will finish approximately on: Wed Apr 24, 2019 13:24


 ******************************************************************
Time step number    1800   t =    3.5980 s out of    3000
 ******************************************************************
 We have done    59.9866638     % of the total
 Max absolute value of scalar field in fluid (acoustic) =    35.9105110    
 Elapsed time in seconds =    43.947000026702881     
 Elapsed time in hh:mm:ss =      0 h 00 m 43 s
 Mean elapsed time per time step in seconds =    2.4415000014834935E-002
 Time steps remaining =         1200
 Estimated remaining time in seconds =    29.298000017801922     
 Estimated remaining time in hh:mm:ss =      0 h 00 m 29 s
 Estimated total run time in seconds =    73.245000044504806     
 Estimated total run time in hh:mm:ss =      0 h 01 m 13 s
 The run will finish approximately on: Wed Apr 24, 2019 13:24


 ******************************************************************
Time step number    2000   t =    3.9980 s out of    3000
 ******************************************************************
 We have done    66.6555481     % of the total
 Max absolute value of scalar field in fluid (acoustic) =    42.7391167    
 Elapsed time in seconds =    46.128999948501587     
 Elapsed time in hh:mm:ss =      0 h 00 m 46 s
 Mean elapsed time per time step in seconds =    2.3064499974250793E-002
 Time steps remaining =         1000
 Estimated remaining time in seconds =    23.064499974250793     
 Estimated remaining time in hh:mm:ss =      0 h 00 m 23 s
 Estimated total run time in seconds =    69.193499922752380     
 Estimated total run time in hh:mm:ss =      0 h 01 m 09 s
 The run will finish approximately on: Wed Apr 24, 2019 13:23


 Creating color image of size          546  x          174  for time step         2000
 drawing scalar image of the forward wavefield pressure...
 Color image maximum amplitude =    72134.296875000000     
 Color image created

 ******************************************************************
Time step number    2200   t =    4.3980 s out of    3000
 ******************************************************************
 We have done    73.3244400     % of the total
 Max absolute value of scalar field in fluid (acoustic) =    29.9445286    
 Elapsed time in seconds =    47.478999853134155     
 Elapsed time in hh:mm:ss =      0 h 00 m 47 s
 Mean elapsed time per time step in seconds =    2.1581363569606434E-002
 Time steps remaining =          800
 Estimated remaining time in seconds =    17.265090855685148     
 Estimated remaining time in hh:mm:ss =      0 h 00 m 17 s
 Estimated total run time in seconds =    64.744090708819300     
 Estimated total run time in hh:mm:ss =      0 h 01 m 04 s
 The run will finish approximately on: Wed Apr 24, 2019 13:23


 ******************************************************************
Time step number    2400   t =    4.7980 s out of    3000
 ******************************************************************
 We have done    79.9933319     % of the total
 Max absolute value of scalar field in fluid (acoustic) =    42.7363663    
 Elapsed time in seconds =    49.054999828338623     
 Elapsed time in hh:mm:ss =      0 h 00 m 49 s
 Mean elapsed time per time step in seconds =    2.0439583261807760E-002
 Time steps remaining =          600
 Estimated remaining time in seconds =    12.263749957084656     
 Estimated remaining time in hh:mm:ss =      0 h 00 m 12 s
 Estimated total run time in seconds =    61.318749785423279     
 Estimated total run time in hh:mm:ss =      0 h 01 m 01 s
 The run will finish approximately on: Wed Apr 24, 2019 13:23


 Creating color image of size          546  x          174  for time step         2500
 drawing scalar image of the forward wavefield pressure...
 Color image maximum amplitude =    74469.718750000000     
 Color image created

 ******************************************************************
Time step number    2600   t =    5.1980 s out of    3000
 ******************************************************************
 We have done    86.6622238     % of the total
 Max absolute value of scalar field in fluid (acoustic) =    32.7967186    
 Elapsed time in seconds =    50.542999982833862     
 Elapsed time in hh:mm:ss =      0 h 00 m 50 s
 Mean elapsed time per time step in seconds =    1.9439615378013024E-002
 Time steps remaining =          400
 Estimated remaining time in seconds =    7.7758461512052097     
 Estimated remaining time in hh:mm:ss =      0 h 00 m 07 s
 Estimated total run time in seconds =    58.318846134039070     
 Estimated total run time in hh:mm:ss =      0 h 00 m 58 s
 The run will finish approximately on: Wed Apr 24, 2019 13:23


 ******************************************************************
Time step number    2800   t =    5.5980 s out of    3000
 ******************************************************************
 We have done    93.3311081     % of the total
 Max absolute value of scalar field in fluid (acoustic) =    36.4759903    
 Elapsed time in seconds =    51.852999925613403     
 Elapsed time in hh:mm:ss =      0 h 00 m 51 s
 Mean elapsed time per time step in seconds =    1.8518928544861930E-002
 Time steps remaining =          200
 Estimated remaining time in seconds =    3.7037857089723860     
 Estimated remaining time in hh:mm:ss =      0 h 00 m 03 s
 Estimated total run time in seconds =    55.556785634585786     
 Estimated total run time in hh:mm:ss =      0 h 00 m 55 s
 The run will finish approximately on: Wed Apr 24, 2019 13:23


 ******************************************************************
Time step number    3000   t =    5.9980 s out of    3000
 ******************************************************************
 We have done    100.000000     % of the total
 Max absolute value of scalar field in fluid (acoustic) =    30.1048737    
 Elapsed time in seconds =    53.077999830245972     
 Elapsed time in hh:mm:ss =      0 h 00 m 53 s
 Mean elapsed time per time step in seconds =    1.7692666610081991E-002
 Time steps remaining =            0
 Estimated remaining time in seconds =    0.0000000000000000     
 Estimated remaining time in hh:mm:ss =      0 h 00 m 00 s
 Estimated total run time in seconds =    53.077999830245972     
 Estimated total run time in hh:mm:ss =      0 h 00 m 53 s


 Creating color image of size          546  x          174  for time step         3000
 drawing scalar image of the forward wavefield pressure...
 Color image maximum amplitude =    53458.085937500000     
 Color image created

 Total duration of the time loop in seconds =    52.7500610      s
 Total number of time steps =         3000
 Average duration of a time step of the time loop =    1.75833534E-02  s
 Total number of spectral elements in the mesh =         4558
     of which         4000  are regular elements
     and          558  are PML elements.
 Average duration of the calculation per spectral element =    3.85769044E-06  s


 Total duration of the timeloop in seconds, measured using 
 date and time of the system :    53.2130013      s

 Saving acoustic last frame...



 -------------------------------------------------------------------------------
 -------------------------------------------------------------------------------
 Program SPECFEM2D: 
 -------------------------------------------------------------------------------
 -------------------------------------------------------------------------------
 FlatLayers
 -------------------------------------------------------------------------------
 -------------------------------------------------------------------------------
 D a t e : 24 - 04 - 2019                                 T i m e  : 13:23:12
 -------------------------------------------------------------------------------
 -------------------------------------------------------------------------------
